data_generated_by_bilbao_crystallographic_server

_cell_length_a                   2.780000 
_cell_length_b                   2.780000 
_cell_length_c                   207.600006 
_cell_angle_alpha                90.000000 
_cell_angle_beta                 90.000000 
_cell_angle_gamma                120.000000        
_symmetry_space_group_name_H-M   'R32' 
_symmetry_Int_Tables_number      155 

loop_
_symmetry_equiv_pos_site_id
_symmetry_equiv_pos_as_xyz
1    'x,y,z'
2    '-y,x-y,z'
3    '-x+y,-x,z'
4    'y,x,-z'
5    'x-y,-y,-z'
6    '-x,-x+y,-z'
7    'x+2/3,y+1/3,z+1/3'
8    '-y+2/3,x-y+1/3,z+1/3'
9    '-x+y+2/3,-x+1/3,z+1/3'
10   'y+2/3,x+1/3,-z+1/3'
11   'x-y+2/3,-y+1/3,-z+1/3'
12   '-x+2/3,-x+y+1/3,-z+1/3'
13   'x+1/3,y+2/3,z+2/3'
14   '-y+1/3,x-y+2/3,z+2/3'
15   '-x+y+1/3,-x+2/3,z+2/3'
16   'y+1/3,x+2/3,-z+2/3'
17   'x-y+1/3,-y+2/3,-z+2/3'
18   '-x+1/3,-x+y+2/3,-z+2/3'

loop_
_atom_site_label 
_atom_site_type_symbol 
_atom_site_symmetry_multiplicity 
_atom_site_Wyckoff_symbol 
_atom_site_fract_x 
_atom_site_fract_y 
_atom_site_fract_z 
Li1  Li ? ?  0.00000  0.00000  0.75000
Li1002 Li ? ?  0.33333  0.66667  0.79167
Li1003 Li ? ?  0.66667  0.33333  0.83333
Li1004 Li ? ?  0.00000  0.00000  0.00000
Li1005 Li ? ?  0.00000  0.00000  0.37500
Co1  Co ? ?  0.00000  0.00000  0.80250
Co1002 Co ? ?  0.00000  0.00000  0.69750
Co1003 Co ? ?  0.33333  0.66667  0.84417
Co1004 Co ? ?  0.33333  0.66667  0.73917
Co1005 Co ? ?  0.66667  0.33333  0.88583
Co1006 Co ? ?  0.00000  0.00000  0.05250
Co1007 Co ? ?  0.00000  0.00000  0.42750
Co1008 Co ? ?  0.00000  0.00000  0.67750
O1    O ? ?  0.00000  0.00000  0.78625
O1002  O ? ?  0.00000  0.00000  0.71375
O1003  O ? ?  0.33333  0.66667  0.82792
O1004  O ? ?  0.33333  0.66667  0.75542
O1005  O ? ?  0.66667  0.33333  0.86958
O1006  O ? ?  0.00000  0.00000  0.03625
O1007  O ? ?  0.00000  0.00000  0.41125
O1008  O ? ?  0.00000  0.00000  0.66125
O2    O ? ?  0.00000  0.00000  0.76500
O2002  O ? ?  0.00000  0.00000  0.73500
O2003  O ? ?  0.33333  0.66667  0.80667
O2004  O ? ?  0.33333  0.66667  0.77667
O2005  O ? ?  0.66667  0.33333  0.84833
O2006  O ? ?  0.00000  0.00000  0.01500
O2007  O ? ?  0.00000  0.00000  0.39000
O2008  O ? ?  0.00000  0.00000  0.64000
