data_generated_by_bilbao_crystallographic_server

_cell_length_a                   2.780000 
_cell_length_b                   2.780000 
_cell_length_c                   129.750000 
_cell_angle_alpha                90.000000 
_cell_angle_beta                 90.000000 
_cell_angle_gamma                120.000000        
_symmetry_space_group_name_H-M   'R3' 
_symmetry_Int_Tables_number      146 

loop_
_symmetry_equiv_pos_site_id
_symmetry_equiv_pos_as_xyz
1    'x,y,z'
2    '-y,x-y,z'
3    '-x+y,-x,z'
4    'x+2/3,y+1/3,z+1/3'
5    '-y+2/3,x-y+1/3,z+1/3'
6    '-x+y+2/3,-x+1/3,z+1/3'
7    'x+1/3,y+2/3,z+2/3'
8    '-y+1/3,x-y+2/3,z+2/3'
9    '-x+y+1/3,-x+2/3,z+2/3'

loop_
_atom_site_label 
_atom_site_type_symbol 
_atom_site_symmetry_multiplicity 
_atom_site_Wyckoff_symbol 
_atom_site_fract_x 
_atom_site_fract_y 
_atom_site_fract_z 
Li1  Li ? ?  0.00000  0.00000  0.40000
Li1002 Li ? ?  0.33333  0.66667  0.46667
Li1003 Li ? ?  0.66667  0.33333  0.53333
Li1004 Li ? ?  0.00000  0.00000  0.60000
Li1005 Li ? ?  0.00000  0.00000  0.00000
Co1  Co ? ?  0.00000  0.00000  0.48400
Co1002 Co ? ?  0.00000  0.00000  0.31600
Co1003 Co ? ?  0.33333  0.66667  0.55067
Co1004 Co ? ?  0.33333  0.66667  0.38267
Co1005 Co ? ?  0.66667  0.33333  0.61733
Co1006 Co ? ?  0.66667  0.33333  0.44933
Co1007 Co ? ?  0.00000  0.00000  0.68400
Co1008 Co ? ?  0.00000  0.00000  0.08400
Co1009 Co ? ?  0.00000  0.00000  0.51600
Co1010 Co ? ?  0.33333  0.66667  0.58267
O1    O ? ?  0.00000  0.00000  0.45800
O1002  O ? ?  0.00000  0.00000  0.34200
O1003  O ? ?  0.33333  0.66667  0.52467
O1004  O ? ?  0.33333  0.66667  0.40867
O1005  O ? ?  0.66667  0.33333  0.59133
O1006  O ? ?  0.66667  0.33333  0.47533
O1007  O ? ?  0.00000  0.00000  0.65800
O1008  O ? ?  0.00000  0.00000  0.05800
O1009  O ? ?  0.00000  0.00000  0.54200
O1010  O ? ?  0.33333  0.66667  0.60867
O2    O ? ?  0.00000  0.00000  0.42400
O2002  O ? ?  0.00000  0.00000  0.37600
O2003  O ? ?  0.33333  0.66667  0.49067
O2004  O ? ?  0.33333  0.66667  0.44267
O2005  O ? ?  0.66667  0.33333  0.55733
O2006  O ? ?  0.66667  0.33333  0.50933
O2007  O ? ?  0.00000  0.00000  0.62400
O2008  O ? ?  0.00000  0.00000  0.02400
O2009  O ? ?  0.00000  0.00000  0.57600
O2010  O ? ?  0.33333  0.66667  0.64267
