data_generated_by_bilbao_crystallographic_server

_cell_length_a                   2.780000 
_cell_length_b                   2.780000 
_cell_length_c                   181.650009 
_cell_angle_alpha                90.000000 
_cell_angle_beta                 90.000000 
_cell_angle_gamma                120.000000        
_symmetry_space_group_name_H-M   'R3m' 
_symmetry_Int_Tables_number      160 

loop_
_symmetry_equiv_pos_site_id
_symmetry_equiv_pos_as_xyz
1    'x,y,z'
2    '-y,x-y,z'
3    '-x+y,-x,z'
4    '-y,-x,z'
5    '-x+y,y,z'
6    'x,x-y,z'
7    'x+2/3,y+1/3,z+1/3'
8    '-y+2/3,x-y+1/3,z+1/3'
9    '-x+y+2/3,-x+1/3,z+1/3'
10   '-y+2/3,-x+1/3,z+1/3'
11   '-x+y+2/3,y+1/3,z+1/3'
12   'x+2/3,x-y+1/3,z+1/3'
13   'x+1/3,y+2/3,z+2/3'
14   '-y+1/3,x-y+2/3,z+2/3'
15   '-x+y+1/3,-x+2/3,z+2/3'
16   '-y+1/3,-x+2/3,z+2/3'
17   '-x+y+1/3,y+2/3,z+2/3'
18   'x+1/3,x-y+2/3,z+2/3'

loop_
_atom_site_label 
_atom_site_type_symbol 
_atom_site_symmetry_multiplicity 
_atom_site_Wyckoff_symbol 
_atom_site_fract_x 
_atom_site_fract_y 
_atom_site_fract_z 
Li1  Li ? ?  0.00000  0.00000  0.57143
Li1002 Li ? ?  0.66667  0.33333  0.61905
Li1003 Li ? ?  0.33333  0.66667  0.66667
Li1004 Li ? ?  0.00000  0.00000  0.71429
Li1005 Li ? ?  0.00000  0.00000  0.85714
Li1006 Li ? ?  0.00000  0.00000  0.14286
Li1007 Li ? ?  0.00000  0.00000  0.42857
Co1  Co ? ?  0.00000  0.00000  0.63143
Co1002 Co ? ?  0.00000  0.00000  0.51143
Co1003 Co ? ?  0.66667  0.33333  0.67905
Co1004 Co ? ?  0.66667  0.33333  0.55905
Co1005 Co ? ?  0.33333  0.66667  0.72667
Co1006 Co ? ?  0.33333  0.66667  0.60667
Co1007 Co ? ?  0.00000  0.00000  0.77429
Co1008 Co ? ?  0.00000  0.00000  0.91714
Co1009 Co ? ?  0.00000  0.00000  0.20286
Co1010 Co ? ?  0.00000  0.00000  0.48857
Co1011 Co ? ?  0.00000  0.00000  0.65429
Co1012 Co ? ?  0.66667  0.33333  0.70191
Co1013 Co ? ?  0.33333  0.66667  0.74952
Co1014 Co ? ?  0.00000  0.00000  0.79714
O1    O ? ?  0.00000  0.00000  0.61286
O1002  O ? ?  0.00000  0.00000  0.53000
O1003  O ? ?  0.66667  0.33333  0.66048
O1004  O ? ?  0.66667  0.33333  0.57762
O1005  O ? ?  0.33333  0.66667  0.70810
O1006  O ? ?  0.33333  0.66667  0.62524
O1007  O ? ?  0.00000  0.00000  0.75571
O1008  O ? ?  0.00000  0.00000  0.89857
O1009  O ? ?  0.00000  0.00000  0.18429
O1010  O ? ?  0.00000  0.00000  0.47000
O1011  O ? ?  0.00000  0.00000  0.67286
O1012  O ? ?  0.66667  0.33333  0.72048
O1013  O ? ?  0.33333  0.66667  0.76809
O1014  O ? ?  0.00000  0.00000  0.81571
O2    O ? ?  0.00000  0.00000  0.58857
O2002  O ? ?  0.00000  0.00000  0.55429
O2003  O ? ?  0.66667  0.33333  0.63619
O2004  O ? ?  0.66667  0.33333  0.60191
O2005  O ? ?  0.33333  0.66667  0.68381
O2006  O ? ?  0.33333  0.66667  0.64952
O2007  O ? ?  0.00000  0.00000  0.73143
O2008  O ? ?  0.00000  0.00000  0.87429
O2009  O ? ?  0.00000  0.00000  0.16000
O2010  O ? ?  0.00000  0.00000  0.44571
O2011  O ? ?  0.00000  0.00000  0.69714
O2012  O ? ?  0.66667  0.33333  0.74476
O2013  O ? ?  0.33333  0.66667  0.79238
O2014  O ? ?  0.00000  0.00000  0.84000
