data_generated_by_bilbao_crystallographic_server

_cell_length_a                   2.780000 
_cell_length_b                   2.780000 
_cell_length_c                   51.900002 
_cell_angle_alpha                90.000000 
_cell_angle_beta                 90.000000 
_cell_angle_gamma                120.000000        
_symmetry_space_group_name_H-M   'P3_121' 
_symmetry_Int_Tables_number      152 

loop_
_symmetry_equiv_pos_site_id
_symmetry_equiv_pos_as_xyz
1    'x,y,z'
2    '-y,x-y,z+1/3'
3    '-x+y,-x,z+2/3'
4    'y,x,-z'
5    'x-y,-y,-z+2/3'
6    '-x,-x+y,-z+1/3'

loop_
_atom_site_label 
_atom_site_type_symbol 
_atom_site_symmetry_multiplicity 
_atom_site_Wyckoff_symbol 
_atom_site_fract_x 
_atom_site_fract_y 
_atom_site_fract_z 
Li1  Li ? ?  0.66667  0.66667  0.50000
Li1002 Li ? ?  0.00000  0.33333  0.66667
Co1  Co ? ?  0.66667  0.66667  0.71000
Co1002 Co ? ?  0.00000  0.33333  0.87667
O1    O ? ?  0.66667  0.66667  0.64500
O1002  O ? ?  0.00000  0.33333  0.81167
O2    O ? ?  0.66667  0.66667  0.56000
O2002  O ? ?  0.00000  0.33333  0.72667
