data_generated_by_bilbao_crystallographic_server

_cell_length_a                   2.780000 
_cell_length_b                   2.780000 
_cell_length_c                   51.900002 
_cell_angle_alpha                90.000000 
_cell_angle_beta                 90.000000 
_cell_angle_gamma                120.000000        
_symmetry_space_group_name_H-M   'P321' 
_symmetry_Int_Tables_number      150 

loop_
_symmetry_equiv_pos_site_id
_symmetry_equiv_pos_as_xyz
1    'x,y,z'
2    '-y,x-y,z'
3    '-x+y,-x,z'
4    'y,x,-z'
5    'x-y,-y,-z'
6    '-x,-x+y,-z'

loop_
_atom_site_label 
_atom_site_type_symbol 
_atom_site_symmetry_multiplicity 
_atom_site_Wyckoff_symbol 
_atom_site_fract_x 
_atom_site_fract_y 
_atom_site_fract_z 
Li1  Li ? ?  0.66667  0.33333  0.66667
Li1002 Li ? ?  0.33333  0.66667  0.83333
Li1003 Li ? ?  0.00000  0.00000  0.00000
Li1004 Li ? ?  0.00000  0.00000  0.50000
Co1  Co ? ?  0.66667  0.33333  0.87667
Co1002 Co ? ?  0.66667  0.33333  0.45667
Co1003 Co ? ?  0.33333  0.66667  0.04333
Co1004 Co ? ?  0.33333  0.66667  0.62333
Co1005 Co ? ?  0.00000  0.00000  0.21000
Co1006 Co ? ?  0.00000  0.00000  0.71000
O1    O ? ?  0.66667  0.33333  0.81167
O1002  O ? ?  0.66667  0.33333  0.52167
O1003  O ? ?  0.33333  0.66667  0.97833
O1004  O ? ?  0.33333  0.66667  0.68833
O1005  O ? ?  0.00000  0.00000  0.14500
O1006  O ? ?  0.00000  0.00000  0.64500
O2    O ? ?  0.66667  0.33333  0.72667
O2002  O ? ?  0.66667  0.33333  0.60667
O2003  O ? ?  0.33333  0.66667  0.89333
O2004  O ? ?  0.33333  0.66667  0.77333
O2005  O ? ?  0.00000  0.00000  0.06000
O2006  O ? ?  0.00000  0.00000  0.56000
