data_generated_by_bilbao_crystallographic_server

_cell_length_a                   2.780000 
_cell_length_b                   2.780000 
_cell_length_c                   207.600006 
_cell_angle_alpha                90.000000 
_cell_angle_beta                 90.000000 
_cell_angle_gamma                120.000000        
_symmetry_space_group_name_H-M   'R-3' 
_symmetry_Int_Tables_number      148 

loop_
_symmetry_equiv_pos_site_id
_symmetry_equiv_pos_as_xyz
1    'x,y,z'
2    '-y,x-y,z'
3    '-x+y,-x,z'
4    '-x,-y,-z'
5    'y,-x+y,-z'
6    'x-y,x,-z'
7    'x+2/3,y+1/3,z+1/3'
8    '-y+2/3,x-y+1/3,z+1/3'
9    '-x+y+2/3,-x+1/3,z+1/3'
10   '-x+2/3,-y+1/3,-z+1/3'
11   'y+2/3,-x+y+1/3,-z+1/3'
12   'x-y+2/3,x+1/3,-z+1/3'
13   'x+1/3,y+2/3,z+2/3'
14   '-y+1/3,x-y+2/3,z+2/3'
15   '-x+y+1/3,-x+2/3,z+2/3'
16   '-x+1/3,-y+2/3,-z+2/3'
17   'y+1/3,-x+y+2/3,-z+2/3'
18   'x-y+1/3,x+2/3,-z+2/3'

loop_
_atom_site_label 
_atom_site_type_symbol 
_atom_site_symmetry_multiplicity 
_atom_site_Wyckoff_symbol 
_atom_site_fract_x 
_atom_site_fract_y 
_atom_site_fract_z 
Li1  Li ? ?  0.00000  0.00000  0.00000
Li1002 Li ? ?  0.33333  0.66667  0.04167
Li1003 Li ? ?  0.66667  0.33333  0.08333
Li1004 Li ? ?  0.00000  0.00000  0.12500
Li1005 Li ? ?  0.00000  0.00000  0.50000
Co1  Co ? ?  0.00000  0.00000  0.05250
Co1002 Co ? ?  0.33333  0.66667  0.09417
Co1003 Co ? ?  0.33333  0.66667  0.98917
Co1004 Co ? ?  0.66667  0.33333  0.13583
Co1005 Co ? ?  0.66667  0.33333  0.03083
Co1006 Co ? ?  0.00000  0.00000  0.17750
Co1007 Co ? ?  0.00000  0.00000  0.55250
Co1008 Co ? ?  0.00000  0.00000  0.92750
O1    O ? ?  0.00000  0.00000  0.03625
O1002  O ? ?  0.33333  0.66667  0.07792
O1003  O ? ?  0.33333  0.66667  0.00542
O1004  O ? ?  0.66667  0.33333  0.11958
O1005  O ? ?  0.66667  0.33333  0.04708
O1006  O ? ?  0.00000  0.00000  0.16125
O1007  O ? ?  0.00000  0.00000  0.53625
O1008  O ? ?  0.00000  0.00000  0.91125
O2    O ? ?  0.00000  0.00000  0.01500
O2002  O ? ?  0.33333  0.66667  0.05667
O2003  O ? ?  0.33333  0.66667  0.02667
O2004  O ? ?  0.66667  0.33333  0.09833
O2005  O ? ?  0.66667  0.33333  0.06833
O2006  O ? ?  0.00000  0.00000  0.14000
O2007  O ? ?  0.00000  0.00000  0.51500
O2008  O ? ?  0.00000  0.00000  0.89000
