data_generated_by_bilbao_crystallographic_server

_cell_length_a                   2.780000 
_cell_length_b                   2.780000 
_cell_length_c                   129.750000 
_cell_angle_alpha                90.000000 
_cell_angle_beta                 90.000000 
_cell_angle_gamma                120.000000        
_symmetry_space_group_name_H-M   'R-3' 
_symmetry_Int_Tables_number      148 

loop_
_symmetry_equiv_pos_site_id
_symmetry_equiv_pos_as_xyz
1    'x,y,z'
2    '-y,x-y,z'
3    '-x+y,-x,z'
4    '-x,-y,-z'
5    'y,-x+y,-z'
6    'x-y,x,-z'
7    'x+2/3,y+1/3,z+1/3'
8    '-y+2/3,x-y+1/3,z+1/3'
9    '-x+y+2/3,-x+1/3,z+1/3'
10   '-x+2/3,-y+1/3,-z+1/3'
11   'y+2/3,-x+y+1/3,-z+1/3'
12   'x-y+2/3,x+1/3,-z+1/3'
13   'x+1/3,y+2/3,z+2/3'
14   '-y+1/3,x-y+2/3,z+2/3'
15   '-x+y+1/3,-x+2/3,z+2/3'
16   '-x+1/3,-y+2/3,-z+2/3'
17   'y+1/3,-x+y+2/3,-z+2/3'
18   'x-y+1/3,x+2/3,-z+2/3'

loop_
_atom_site_label 
_atom_site_type_symbol 
_atom_site_symmetry_multiplicity 
_atom_site_Wyckoff_symbol 
_atom_site_fract_x 
_atom_site_fract_y 
_atom_site_fract_z 
Li1  Li ? ?  0.00000  0.00000  0.80000
Li1002 Li ? ?  0.66667  0.33333  0.93333
Li1003 Li ? ?  0.00000  0.00000  0.00000
Co1  Co ? ?  0.00000  0.00000  0.88400
Co1002 Co ? ?  0.00000  0.00000  0.71600
Co1003 Co ? ?  0.66667  0.33333  0.01733
Co1004 Co ? ?  0.66667  0.33333  0.84933
Co1005 Co ? ?  0.00000  0.00000  0.08400
O1    O ? ?  0.00000  0.00000  0.85800
O1002  O ? ?  0.00000  0.00000  0.74200
O1003  O ? ?  0.66667  0.33333  0.99133
O1004  O ? ?  0.66667  0.33333  0.87533
O1005  O ? ?  0.00000  0.00000  0.05800
O2    O ? ?  0.00000  0.00000  0.82400
O2002  O ? ?  0.00000  0.00000  0.77600
O2003  O ? ?  0.66667  0.33333  0.95733
O2004  O ? ?  0.66667  0.33333  0.90933
O2005  O ? ?  0.00000  0.00000  0.02400
