data_generated_by_bilbao_crystallographic_server

_cell_length_a                   2.780000 
_cell_length_b                   2.780000 
_cell_length_c                   51.900002 
_cell_angle_alpha                90.000000 
_cell_angle_beta                 90.000000 
_cell_angle_gamma                120.000000        
_symmetry_space_group_name_H-M   'P3' 
_symmetry_Int_Tables_number      143 

loop_
_symmetry_equiv_pos_site_id
_symmetry_equiv_pos_as_xyz
1    'x,y,z'
2    '-y,x-y,z'
3    '-x+y,-x,z'

loop_
_atom_site_label 
_atom_site_type_symbol 
_atom_site_symmetry_multiplicity 
_atom_site_Wyckoff_symbol 
_atom_site_fract_x 
_atom_site_fract_y 
_atom_site_fract_z 
Li1  Li ? ?  0.00000  0.00000  0.00000
Li1002 Li ? ?  0.66667  0.33333  0.16667
Li1003 Li ? ?  0.33333  0.66667  0.33333
Li1004 Li ? ?  0.00000  0.00000  0.50000
Li1005 Li ? ?  0.66667  0.33333  0.66667
Li1006 Li ? ?  0.33333  0.66667  0.83333
Co1  Co ? ?  0.00000  0.00000  0.21000
Co1002 Co ? ?  0.00000  0.00000  0.79000
Co1003 Co ? ?  0.66667  0.33333  0.37667
Co1004 Co ? ?  0.66667  0.33333  0.95667
Co1005 Co ? ?  0.33333  0.66667  0.54333
Co1006 Co ? ?  0.33333  0.66667  0.12333
Co1007 Co ? ?  0.00000  0.00000  0.71000
Co1008 Co ? ?  0.00000  0.00000  0.29000
Co1009 Co ? ?  0.66667  0.33333  0.87667
Co1010 Co ? ?  0.66667  0.33333  0.45667
Co1011 Co ? ?  0.33333  0.66667  0.04333
Co1012 Co ? ?  0.33333  0.66667  0.62333
O1    O ? ?  0.00000  0.00000  0.14500
O1002  O ? ?  0.00000  0.00000  0.85500
O1003  O ? ?  0.66667  0.33333  0.31167
O1004  O ? ?  0.66667  0.33333  0.02167
O1005  O ? ?  0.33333  0.66667  0.47833
O1006  O ? ?  0.33333  0.66667  0.18833
O1007  O ? ?  0.00000  0.00000  0.64500
O1008  O ? ?  0.00000  0.00000  0.35500
O1009  O ? ?  0.66667  0.33333  0.81167
O1010  O ? ?  0.66667  0.33333  0.52167
O1011  O ? ?  0.33333  0.66667  0.97833
O1012  O ? ?  0.33333  0.66667  0.68833
O2    O ? ?  0.00000  0.00000  0.06000
O2002  O ? ?  0.00000  0.00000  0.94000
O2003  O ? ?  0.66667  0.33333  0.22667
O2004  O ? ?  0.66667  0.33333  0.10667
O2005  O ? ?  0.33333  0.66667  0.39333
O2006  O ? ?  0.33333  0.66667  0.27333
O2007  O ? ?  0.00000  0.00000  0.56000
O2008  O ? ?  0.00000  0.00000  0.44000
O2009  O ? ?  0.66667  0.33333  0.72667
O2010  O ? ?  0.66667  0.33333  0.60667
O2011  O ? ?  0.33333  0.66667  0.89333
O2012  O ? ?  0.33333  0.66667  0.77333
