data_generated_by_bilbao_crystallographic_server

_cell_length_a                   5.560000 
_cell_length_b                   5.560000 
_cell_length_c                   51.900002 
_cell_angle_alpha                90.000000 
_cell_angle_beta                 90.000000 
_cell_angle_gamma                120.000000        
_symmetry_space_group_name_H-M   'R3c' 
_symmetry_Int_Tables_number      161 

loop_
_symmetry_equiv_pos_site_id
_symmetry_equiv_pos_as_xyz
1    'x,y,z'
2    '-y,x-y,z'
3    '-x+y,-x,z'
4    '-y,-x,z+1/2'
5    '-x+y,y,z+1/2'
6    'x,x-y,z+1/2'
7    'x+2/3,y+1/3,z+1/3'
8    '-y+2/3,x-y+1/3,z+1/3'
9    '-x+y+2/3,-x+1/3,z+1/3'
10   '-y+2/3,-x+1/3,z+5/6'
11   '-x+y+2/3,y+1/3,z+5/6'
12   'x+2/3,x-y+1/3,z+5/6'
13   'x+1/3,y+2/3,z+2/3'
14   '-y+1/3,x-y+2/3,z+2/3'
15   '-x+y+1/3,-x+2/3,z+2/3'
16   '-y+1/3,-x+2/3,z+1/6'
17   '-x+y+1/3,y+2/3,z+1/6'
18   'x+1/3,x-y+2/3,z+1/6'

loop_
_atom_site_label 
_atom_site_type_symbol 
_atom_site_symmetry_multiplicity 
_atom_site_Wyckoff_symbol 
_atom_site_fract_x 
_atom_site_fract_y 
_atom_site_fract_z 
Li1  Li ? ?  0.50000  0.00000  0.00000
Li1002 Li ? ?  0.33333  0.66667  0.16667
Co1  Co ? ?  0.50000  0.00000  0.21000
Co1002 Co ? ?  0.50000  0.00000  0.79000
Co1003 Co ? ?  0.33333  0.66667  0.37667
Co1004 Co ? ?  0.33333  0.66667  0.95667
O1    O ? ?  0.50000  0.00000  0.14500
O1002  O ? ?  0.50000  0.00000  0.85500
O1003  O ? ?  0.33333  0.66667  0.31167
O1004  O ? ?  0.33333  0.66667  0.02167
O2    O ? ?  0.50000  0.00000  0.06000
O2002  O ? ?  0.50000  0.00000  0.94000
O2003  O ? ?  0.33333  0.66667  0.22667
O2004  O ? ?  0.33333  0.66667  0.10667
