data_generated_by_bilbao_crystallographic_server

_cell_length_a                   2.780000 
_cell_length_b                   2.780000 
_cell_length_c                   207.600006 
_cell_angle_alpha                90.000000 
_cell_angle_beta                 90.000000 
_cell_angle_gamma                120.000000        
_symmetry_space_group_name_H-M   'R32' 
_symmetry_Int_Tables_number      155 

loop_
_symmetry_equiv_pos_site_id
_symmetry_equiv_pos_as_xyz
1    'x,y,z'
2    '-y,x-y,z'
3    '-x+y,-x,z'
4    'y,x,-z'
5    'x-y,-y,-z'
6    '-x,-x+y,-z'
7    'x+2/3,y+1/3,z+1/3'
8    '-y+2/3,x-y+1/3,z+1/3'
9    '-x+y+2/3,-x+1/3,z+1/3'
10   'y+2/3,x+1/3,-z+1/3'
11   'x-y+2/3,-y+1/3,-z+1/3'
12   '-x+2/3,-x+y+1/3,-z+1/3'
13   'x+1/3,y+2/3,z+2/3'
14   '-y+1/3,x-y+2/3,z+2/3'
15   '-x+y+1/3,-x+2/3,z+2/3'
16   'y+1/3,x+2/3,-z+2/3'
17   'x-y+1/3,-y+2/3,-z+2/3'
18   '-x+1/3,-x+y+2/3,-z+2/3'

loop_
_atom_site_label 
_atom_site_type_symbol 
_atom_site_symmetry_multiplicity 
_atom_site_Wyckoff_symbol 
_atom_site_fract_x 
_atom_site_fract_y 
_atom_site_fract_z 
Li1  Li ? ?  0.00000  0.00000  0.81250
Li1002 Li ? ?  0.66667  0.33333  0.89583
Li1003 Li ? ?  0.00000  0.00000  0.93750
Li1004 Li ? ?  0.00000  0.00000  0.31250
Co1  Co ? ?  0.00000  0.00000  0.86500
Co1002 Co ? ?  0.00000  0.00000  0.76000
Co1003 Co ? ?  0.66667  0.33333  0.94833
Co1004 Co ? ?  0.66667  0.33333  0.84333
Co1005 Co ? ?  0.00000  0.00000  0.99000
Co1006 Co ? ?  0.00000  0.00000  0.11500
Co1007 Co ? ?  0.00000  0.00000  0.36500
Co1008 Co ? ?  0.00000  0.00000  0.74000
O1    O ? ?  0.00000  0.00000  0.84875
O1002  O ? ?  0.00000  0.00000  0.77625
O1003  O ? ?  0.66667  0.33333  0.93208
O1004  O ? ?  0.66667  0.33333  0.85958
O1005  O ? ?  0.00000  0.00000  0.97375
O1006  O ? ?  0.00000  0.00000  0.09875
O1007  O ? ?  0.00000  0.00000  0.34875
O1008  O ? ?  0.00000  0.00000  0.72375
O2    O ? ?  0.00000  0.00000  0.82750
O2002  O ? ?  0.00000  0.00000  0.79750
O2003  O ? ?  0.66667  0.33333  0.91083
O2004  O ? ?  0.66667  0.33333  0.88083
O2005  O ? ?  0.00000  0.00000  0.95250
O2006  O ? ?  0.00000  0.00000  0.07750
O2007  O ? ?  0.00000  0.00000  0.32750
O2008  O ? ?  0.00000  0.00000  0.70250
