data_generated_by_bilbao_crystallographic_server

_cell_length_a                   2.780000 
_cell_length_b                   2.780000 
_cell_length_c                   103.800003 
_cell_angle_alpha                90.000000 
_cell_angle_beta                 90.000000 
_cell_angle_gamma                120.000000        
_symmetry_space_group_name_H-M   'R3m' 
_symmetry_Int_Tables_number      160 

loop_
_symmetry_equiv_pos_site_id
_symmetry_equiv_pos_as_xyz
1    'x,y,z'
2    '-y,x-y,z'
3    '-x+y,-x,z'
4    '-y,-x,z'
5    '-x+y,y,z'
6    'x,x-y,z'
7    'x+2/3,y+1/3,z+1/3'
8    '-y+2/3,x-y+1/3,z+1/3'
9    '-x+y+2/3,-x+1/3,z+1/3'
10   '-y+2/3,-x+1/3,z+1/3'
11   '-x+y+2/3,y+1/3,z+1/3'
12   'x+2/3,x-y+1/3,z+1/3'
13   'x+1/3,y+2/3,z+2/3'
14   '-y+1/3,x-y+2/3,z+2/3'
15   '-x+y+1/3,-x+2/3,z+2/3'
16   '-y+1/3,-x+2/3,z+2/3'
17   '-x+y+1/3,y+2/3,z+2/3'
18   'x+1/3,x-y+2/3,z+2/3'

loop_
_atom_site_label 
_atom_site_type_symbol 
_atom_site_symmetry_multiplicity 
_atom_site_Wyckoff_symbol 
_atom_site_fract_x 
_atom_site_fract_y 
_atom_site_fract_z 
Li1  Li ? ?  0.00000  0.00000  0.87500
Li1002 Li ? ?  0.66667  0.33333  0.95833
Li1003 Li ? ?  0.33333  0.66667  0.04167
Li1004 Li ? ?  0.00000  0.00000  0.12500
Co1  Co ? ?  0.00000  0.00000  0.98000
Co1002 Co ? ?  0.00000  0.00000  0.77000
Co1003 Co ? ?  0.66667  0.33333  0.06333
Co1004 Co ? ?  0.66667  0.33333  0.85333
Co1005 Co ? ?  0.33333  0.66667  0.14667
Co1006 Co ? ?  0.33333  0.66667  0.93667
Co1007 Co ? ?  0.00000  0.00000  0.23000
Co1008 Co ? ?  0.00000  0.00000  0.02000
O1    O ? ?  0.00000  0.00000  0.94750
O1002  O ? ?  0.00000  0.00000  0.80250
O1003  O ? ?  0.66667  0.33333  0.03083
O1004  O ? ?  0.66667  0.33333  0.88583
O1005  O ? ?  0.33333  0.66667  0.11417
O1006  O ? ?  0.33333  0.66667  0.96917
O1007  O ? ?  0.00000  0.00000  0.19750
O1008  O ? ?  0.00000  0.00000  0.05250
O2    O ? ?  0.00000  0.00000  0.90500
O2002  O ? ?  0.00000  0.00000  0.84500
O2003  O ? ?  0.66667  0.33333  0.98833
O2004  O ? ?  0.66667  0.33333  0.92833
O2005  O ? ?  0.33333  0.66667  0.07167
O2006  O ? ?  0.33333  0.66667  0.01167
O2007  O ? ?  0.00000  0.00000  0.15500
O2008  O ? ?  0.00000  0.00000  0.09500
