data_generated_by_bilbao_crystallographic_server

_cell_length_a                   2.780000 
_cell_length_b                   2.780000 
_cell_length_c                   207.600006 
_cell_angle_alpha                90.000000 
_cell_angle_beta                 90.000000 
_cell_angle_gamma                120.000000        
_symmetry_space_group_name_H-M   'R3c' 
_symmetry_Int_Tables_number      161 

loop_
_symmetry_equiv_pos_site_id
_symmetry_equiv_pos_as_xyz
1    'x,y,z'
2    '-y,x-y,z'
3    '-x+y,-x,z'
4    '-y,-x,z+1/2'
5    '-x+y,y,z+1/2'
6    'x,x-y,z+1/2'
7    'x+2/3,y+1/3,z+1/3'
8    '-y+2/3,x-y+1/3,z+1/3'
9    '-x+y+2/3,-x+1/3,z+1/3'
10   '-y+2/3,-x+1/3,z+5/6'
11   '-x+y+2/3,y+1/3,z+5/6'
12   'x+2/3,x-y+1/3,z+5/6'
13   'x+1/3,y+2/3,z+2/3'
14   '-y+1/3,x-y+2/3,z+2/3'
15   '-x+y+1/3,-x+2/3,z+2/3'
16   '-y+1/3,-x+2/3,z+1/6'
17   '-x+y+1/3,y+2/3,z+1/6'
18   'x+1/3,x-y+2/3,z+1/6'

loop_
_atom_site_label 
_atom_site_type_symbol 
_atom_site_symmetry_multiplicity 
_atom_site_Wyckoff_symbol 
_atom_site_fract_x 
_atom_site_fract_y 
_atom_site_fract_z 
Li1  Li ? ?  0.00000  0.00000  0.87500
Li1002 Li ? ?  0.33333  0.66667  0.91667
Li1003 Li ? ?  0.66667  0.33333  0.95833
Li1004 Li ? ?  0.00000  0.00000  0.00000
Co1  Co ? ?  0.00000  0.00000  0.92750
Co1002 Co ? ?  0.00000  0.00000  0.82250
Co1003 Co ? ?  0.33333  0.66667  0.96917
Co1004 Co ? ?  0.33333  0.66667  0.86417
Co1005 Co ? ?  0.66667  0.33333  0.01083
Co1006 Co ? ?  0.66667  0.33333  0.90583
Co1007 Co ? ?  0.00000  0.00000  0.05250
Co1008 Co ? ?  0.00000  0.00000  0.94750
O1    O ? ?  0.00000  0.00000  0.91125
O1002  O ? ?  0.00000  0.00000  0.83875
O1003  O ? ?  0.33333  0.66667  0.95292
O1004  O ? ?  0.33333  0.66667  0.88042
O1005  O ? ?  0.66667  0.33333  0.99458
O1006  O ? ?  0.66667  0.33333  0.92208
O1007  O ? ?  0.00000  0.00000  0.03625
O1008  O ? ?  0.00000  0.00000  0.96375
O2    O ? ?  0.00000  0.00000  0.89000
O2002  O ? ?  0.00000  0.00000  0.86000
O2003  O ? ?  0.33333  0.66667  0.93167
O2004  O ? ?  0.33333  0.66667  0.90167
O2005  O ? ?  0.66667  0.33333  0.97333
O2006  O ? ?  0.66667  0.33333  0.94333
O2007  O ? ?  0.00000  0.00000  0.01500
O2008  O ? ?  0.00000  0.00000  0.98500
