data_generated_by_bilbao_crystallographic_server

_cell_length_a                   2.780000 
_cell_length_b                   2.780000 
_cell_length_c                   181.650009 
_cell_angle_alpha                90.000000 
_cell_angle_beta                 90.000000 
_cell_angle_gamma                120.000000        
_symmetry_space_group_name_H-M   'R3' 
_symmetry_Int_Tables_number      146 

loop_
_symmetry_equiv_pos_site_id
_symmetry_equiv_pos_as_xyz
1    'x,y,z'
2    '-y,x-y,z'
3    '-x+y,-x,z'
4    'x+2/3,y+1/3,z+1/3'
5    '-y+2/3,x-y+1/3,z+1/3'
6    '-x+y+2/3,-x+1/3,z+1/3'
7    'x+1/3,y+2/3,z+2/3'
8    '-y+1/3,x-y+2/3,z+2/3'
9    '-x+y+1/3,-x+2/3,z+2/3'

loop_
_atom_site_label 
_atom_site_type_symbol 
_atom_site_symmetry_multiplicity 
_atom_site_Wyckoff_symbol 
_atom_site_fract_x 
_atom_site_fract_y 
_atom_site_fract_z 
Li1  Li ? ?  0.00000  0.00000  0.14286
Li1002 Li ? ?  0.66667  0.33333  0.19048
Li1003 Li ? ?  0.33333  0.66667  0.23810
Li1004 Li ? ?  0.00000  0.00000  0.28571
Li1005 Li ? ?  0.00000  0.00000  0.42857
Li1006 Li ? ?  0.00000  0.00000  0.71429
Li1007 Li ? ?  0.00000  0.00000  0.00000
Co1  Co ? ?  0.00000  0.00000  0.20286
Co1002 Co ? ?  0.00000  0.00000  0.08286
Co1003 Co ? ?  0.66667  0.33333  0.25048
Co1004 Co ? ?  0.66667  0.33333  0.13048
Co1005 Co ? ?  0.33333  0.66667  0.29809
Co1006 Co ? ?  0.33333  0.66667  0.17810
Co1007 Co ? ?  0.00000  0.00000  0.34571
Co1008 Co ? ?  0.00000  0.00000  0.48857
Co1009 Co ? ?  0.00000  0.00000  0.77429
Co1010 Co ? ?  0.00000  0.00000  0.06000
Co1011 Co ? ?  0.00000  0.00000  0.22571
Co1012 Co ? ?  0.66667  0.33333  0.27333
Co1013 Co ? ?  0.33333  0.66667  0.32095
Co1014 Co ? ?  0.00000  0.00000  0.36857
O1    O ? ?  0.00000  0.00000  0.18429
O1002  O ? ?  0.00000  0.00000  0.10143
O1003  O ? ?  0.66667  0.33333  0.23191
O1004  O ? ?  0.66667  0.33333  0.14905
O1005  O ? ?  0.33333  0.66667  0.27952
O1006  O ? ?  0.33333  0.66667  0.19667
O1007  O ? ?  0.00000  0.00000  0.32714
O1008  O ? ?  0.00000  0.00000  0.47000
O1009  O ? ?  0.00000  0.00000  0.75571
O1010  O ? ?  0.00000  0.00000  0.04143
O1011  O ? ?  0.00000  0.00000  0.24429
O1012  O ? ?  0.66667  0.33333  0.29191
O1013  O ? ?  0.33333  0.66667  0.33952
O1014  O ? ?  0.00000  0.00000  0.38714
O2    O ? ?  0.00000  0.00000  0.16000
O2002  O ? ?  0.00000  0.00000  0.12571
O2003  O ? ?  0.66667  0.33333  0.20762
O2004  O ? ?  0.66667  0.33333  0.17333
O2005  O ? ?  0.33333  0.66667  0.25524
O2006  O ? ?  0.33333  0.66667  0.22095
O2007  O ? ?  0.00000  0.00000  0.30286
O2008  O ? ?  0.00000  0.00000  0.44571
O2009  O ? ?  0.00000  0.00000  0.73143
O2010  O ? ?  0.00000  0.00000  0.01714
O2011  O ? ?  0.00000  0.00000  0.26857
O2012  O ? ?  0.66667  0.33333  0.31619
O2013  O ? ?  0.33333  0.66667  0.36381
O2014  O ? ?  0.00000  0.00000  0.41143
