data_generated_by_bilbao_crystallographic_server

_cell_length_a                   2.780000 
_cell_length_b                   2.780000 
_cell_length_c                   51.900002 
_cell_angle_alpha                90.000000 
_cell_angle_beta                 90.000000 
_cell_angle_gamma                120.000000        
_symmetry_space_group_name_H-M   'P3m1' 
_symmetry_Int_Tables_number      156 

loop_
_symmetry_equiv_pos_site_id
_symmetry_equiv_pos_as_xyz
1    'x,y,z'
2    '-y,x-y,z'
3    '-x+y,-x,z'
4    '-y,-x,z'
5    '-x+y,y,z'
6    'x,x-y,z'

loop_
_atom_site_label 
_atom_site_type_symbol 
_atom_site_symmetry_multiplicity 
_atom_site_Wyckoff_symbol 
_atom_site_fract_x 
_atom_site_fract_y 
_atom_site_fract_z 
Li1  Li ? ?  0.66667  0.33333  0.41667
Li1002 Li ? ?  0.33333  0.66667  0.58333
Li1003 Li ? ?  0.00000  0.00000  0.75000
Li1004 Li ? ?  0.66667  0.33333  0.91666
Li1005 Li ? ?  0.33333  0.66667  0.08333
Li1006 Li ? ?  0.00000  0.00000  0.25000
Co1  Co ? ?  0.66667  0.33333  0.62667
Co1002 Co ? ?  0.66667  0.33333  0.20666
Co1003 Co ? ?  0.33333  0.66667  0.79333
Co1004 Co ? ?  0.33333  0.66667  0.37333
Co1005 Co ? ?  0.00000  0.00000  0.96000
Co1006 Co ? ?  0.00000  0.00000  0.54000
Co1007 Co ? ?  0.66667  0.33333  0.12666
Co1008 Co ? ?  0.66667  0.33333  0.70666
Co1009 Co ? ?  0.33333  0.66667  0.29333
Co1010 Co ? ?  0.33333  0.66667  0.87333
Co1011 Co ? ?  0.00000  0.00000  0.46000
Co1012 Co ? ?  0.00000  0.00000  0.04000
O1    O ? ?  0.66667  0.33333  0.56166
O1002  O ? ?  0.66667  0.33333  0.27166
O1003  O ? ?  0.33333  0.66667  0.72833
O1004  O ? ?  0.33333  0.66667  0.43833
O1005  O ? ?  0.00000  0.00000  0.89500
O1006  O ? ?  0.00000  0.00000  0.60500
O1007  O ? ?  0.66667  0.33333  0.06166
O1008  O ? ?  0.66667  0.33333  0.77167
O1009  O ? ?  0.33333  0.66667  0.22833
O1010  O ? ?  0.33333  0.66667  0.93834
O1011  O ? ?  0.00000  0.00000  0.39500
O1012  O ? ?  0.00000  0.00000  0.10500
O2    O ? ?  0.66667  0.33333  0.47667
O2002  O ? ?  0.66667  0.33333  0.35667
O2003  O ? ?  0.33333  0.66667  0.64333
O2004  O ? ?  0.33333  0.66667  0.52333
O2005  O ? ?  0.00000  0.00000  0.81000
O2006  O ? ?  0.00000  0.00000  0.69000
O2007  O ? ?  0.66667  0.33333  0.97667
O2008  O ? ?  0.66667  0.33333  0.85667
O2009  O ? ?  0.33333  0.66667  0.14333
O2010  O ? ?  0.33333  0.66667  0.02334
O2011  O ? ?  0.00000  0.00000  0.31000
O2012  O ? ?  0.00000  0.00000  0.19000
