data_generated_by_bilbao_crystallographic_server

_cell_length_a                   2.815600 
_cell_length_b                   2.815600 
_cell_length_c                   112.433601 
_cell_angle_alpha                90.000000 
_cell_angle_beta                 90.000000 
_cell_angle_gamma                120.000000        
_symmetry_space_group_name_H-M   'R3' 
_symmetry_Int_Tables_number      146 

loop_
_symmetry_equiv_pos_site_id
_symmetry_equiv_pos_as_xyz
1    'x,y,z'
2    '-y,x-y,z'
3    '-x+y,-x,z'
4    'x+2/3,y+1/3,z+1/3'
5    '-y+2/3,x-y+1/3,z+1/3'
6    '-x+y+2/3,-x+1/3,z+1/3'
7    'x+1/3,y+2/3,z+2/3'
8    '-y+1/3,x-y+2/3,z+2/3'
9    '-x+y+1/3,-x+2/3,z+2/3'

loop_
_atom_site_label 
_atom_site_type_symbol 
_atom_site_symmetry_multiplicity 
_atom_site_Wyckoff_symbol 
_atom_site_fract_x 
_atom_site_fract_y 
_atom_site_fract_z 
Li1  Li ? ?  0.00000  0.00000  0.00000
Li1002 Li ? ?  0.33333  0.66667  0.04167
Li1003 Li ? ?  0.66667  0.33333  0.08333
Li1004 Li ? ?  0.00000  0.00000  0.12500
Li1005 Li ? ?  0.00000  0.00000  0.25000
Li1006 Li ? ?  0.00000  0.00000  0.50000
Li1007 Li ? ?  0.00000  0.00000  0.62500
Li1008 Li ? ?  0.00000  0.00000  0.87500
Co1  Co ? ?  0.00000  0.00000  0.06250
Co1002 Co ? ?  0.00000  0.00000  0.93750
Co1003 Co ? ?  0.33333  0.66667  0.10417
Co1004 Co ? ?  0.33333  0.66667  0.97917
Co1005 Co ? ?  0.66667  0.33333  0.14583
Co1006 Co ? ?  0.66667  0.33333  0.02083
Co1007 Co ? ?  0.00000  0.00000  0.18750
Co1008 Co ? ?  0.00000  0.00000  0.56250
O1    O ? ?  0.00000  0.00000  0.02996
O1002  O ? ?  0.00000  0.00000  0.97004
O1003  O ? ?  0.33333  0.66667  0.07163
O1004  O ? ?  0.33333  0.66667  0.01171
O1005  O ? ?  0.66667  0.33333  0.11329
O1006  O ? ?  0.66667  0.33333  0.05337
O1007  O ? ?  0.00000  0.00000  0.15496
O1008  O ? ?  0.00000  0.00000  0.27996
O1009  O ? ?  0.00000  0.00000  0.52996
O1010  O ? ?  0.00000  0.00000  0.65496
O1011  O ? ?  0.00000  0.00000  0.90496
O1012  O ? ?  0.00000  0.00000  0.09504
O1013  O ? ?  0.33333  0.66667  0.13671
O1014  O ? ?  0.66667  0.33333  0.17837
O1015  O ? ?  0.00000  0.00000  0.22004
O1016  O ? ?  0.33333  0.66667  0.26171
