data_generated_by_bilbao_crystallographic_server

_cell_length_a                   2.815600 
_cell_length_b                   2.815600 
_cell_length_c                   112.433601 
_cell_angle_alpha                90.000000 
_cell_angle_beta                 90.000000 
_cell_angle_gamma                120.000000        
_symmetry_space_group_name_H-M   'R3c' 
_symmetry_Int_Tables_number      161 

loop_
_symmetry_equiv_pos_site_id
_symmetry_equiv_pos_as_xyz
1    'x,y,z'
2    '-y,x-y,z'
3    '-x+y,-x,z'
4    '-y,-x,z+1/2'
5    '-x+y,y,z+1/2'
6    'x,x-y,z+1/2'
7    'x+2/3,y+1/3,z+1/3'
8    '-y+2/3,x-y+1/3,z+1/3'
9    '-x+y+2/3,-x+1/3,z+1/3'
10   '-y+2/3,-x+1/3,z+5/6'
11   '-x+y+2/3,y+1/3,z+5/6'
12   'x+2/3,x-y+1/3,z+5/6'
13   'x+1/3,y+2/3,z+2/3'
14   '-y+1/3,x-y+2/3,z+2/3'
15   '-x+y+1/3,-x+2/3,z+2/3'
16   '-y+1/3,-x+2/3,z+1/6'
17   '-x+y+1/3,y+2/3,z+1/6'
18   'x+1/3,x-y+2/3,z+1/6'

loop_
_atom_site_label 
_atom_site_type_symbol 
_atom_site_symmetry_multiplicity 
_atom_site_Wyckoff_symbol 
_atom_site_fract_x 
_atom_site_fract_y 
_atom_site_fract_z 
Li1  Li ? ?  0.00000  0.00000  0.93750
Li1002 Li ? ?  0.33333  0.66667  0.97917
Li1003 Li ? ?  0.66667  0.33333  0.02083
Li1004 Li ? ?  0.00000  0.00000  0.06250
Co1  Co ? ?  0.00000  0.00000  0.00000
Co1002 Co ? ?  0.00000  0.00000  0.87500
Co1003 Co ? ?  0.33333  0.66667  0.91667
Co1004 Co ? ?  0.66667  0.33333  0.95833
O1    O ? ?  0.00000  0.00000  0.96746
O1002  O ? ?  0.00000  0.00000  0.90754
O1003  O ? ?  0.33333  0.66667  0.00913
O1004  O ? ?  0.33333  0.66667  0.94921
O1005  O ? ?  0.66667  0.33333  0.05079
O1006  O ? ?  0.66667  0.33333  0.99087
O1007  O ? ?  0.00000  0.00000  0.09246
O1008  O ? ?  0.00000  0.00000  0.03254
