data_generated_by_bilbao_crystallographic_server

_cell_length_a                   2.815600 
_cell_length_b                   2.815600 
_cell_length_c                   28.108400 
_cell_angle_alpha                90.000000 
_cell_angle_beta                 90.000000 
_cell_angle_gamma                120.000000        
_symmetry_space_group_name_H-M   'P3m1' 
_symmetry_Int_Tables_number      156 

loop_
_symmetry_equiv_pos_site_id
_symmetry_equiv_pos_as_xyz
1    'x,y,z'
2    '-y,x-y,z'
3    '-x+y,-x,z'
4    '-y,-x,z'
5    '-x+y,y,z'
6    'x,x-y,z'

loop_
_atom_site_label 
_atom_site_type_symbol 
_atom_site_symmetry_multiplicity 
_atom_site_Wyckoff_symbol 
_atom_site_fract_x 
_atom_site_fract_y 
_atom_site_fract_z 
Li1  Li ? ?  0.00000  0.00000  0.00000
Li1002 Li ? ?  0.66667  0.33333  0.16667
Li1003 Li ? ?  0.33333  0.66667  0.33333
Li1004 Li ? ?  0.00000  0.00000  0.50000
Li1005 Li ? ?  0.66667  0.33333  0.66667
Li1006 Li ? ?  0.33333  0.66667  0.83333
Co1  Co ? ?  0.00000  0.00000  0.25000
Co1002 Co ? ?  0.00000  0.00000  0.75000
Co1003 Co ? ?  0.66667  0.33333  0.41667
Co1004 Co ? ?  0.66667  0.33333  0.91667
Co1005 Co ? ?  0.33333  0.66667  0.58333
Co1006 Co ? ?  0.33333  0.66667  0.08333
O1    O ? ?  0.00000  0.00000  0.11984
O1002  O ? ?  0.00000  0.00000  0.88016
O1003  O ? ?  0.66667  0.33333  0.28651
O1004  O ? ?  0.66667  0.33333  0.04683
O1005  O ? ?  0.33333  0.66667  0.45317
O1006  O ? ?  0.33333  0.66667  0.21349
O1007  O ? ?  0.00000  0.00000  0.61984
O1008  O ? ?  0.00000  0.00000  0.38016
O1009  O ? ?  0.66667  0.33333  0.78651
O1010  O ? ?  0.66667  0.33333  0.54683
O1011  O ? ?  0.33333  0.66667  0.95317
O1012  O ? ?  0.33333  0.66667  0.71349
