data_generated_by_bilbao_crystallographic_server

_cell_length_a                   2.815600 
_cell_length_b                   2.815600 
_cell_length_c                   28.108400 
_cell_angle_alpha                90.000000 
_cell_angle_beta                 90.000000 
_cell_angle_gamma                120.000000        
_symmetry_space_group_name_H-M   'P-3' 
_symmetry_Int_Tables_number      147 

loop_
_symmetry_equiv_pos_site_id
_symmetry_equiv_pos_as_xyz
1    'x,y,z'
2    '-y,x-y,z'
3    '-x+y,-x,z'
4    '-x,-y,-z'
5    'y,-x+y,-z'
6    'x-y,x,-z'

loop_
_atom_site_label 
_atom_site_type_symbol 
_atom_site_symmetry_multiplicity 
_atom_site_Wyckoff_symbol 
_atom_site_fract_x 
_atom_site_fract_y 
_atom_site_fract_z 
Li1  Li ? ?  0.00000  0.00000  0.75000
Li1002 Li ? ?  0.33333  0.66667  0.91667
Li1003 Li ? ?  0.33333  0.66667  0.41667
Co1  Co ? ?  0.00000  0.00000  0.00000
Co1002 Co ? ?  0.00000  0.00000  0.50000
Co1003 Co ? ?  0.33333  0.66667  0.16667
Co1004 Co ? ?  0.33333  0.66667  0.66667
O1    O ? ?  0.00000  0.00000  0.86984
O1002  O ? ?  0.00000  0.00000  0.63016
O1003  O ? ?  0.33333  0.66667  0.03651
O1004  O ? ?  0.33333  0.66667  0.79683
O1005  O ? ?  0.33333  0.66667  0.53651
O1006  O ? ?  0.33333  0.66667  0.29683
