data_generated_by_bilbao_crystallographic_server

_cell_length_a                   2.815600 
_cell_length_b                   2.815600 
_cell_length_c                   28.108400 
_cell_angle_alpha                90.000000 
_cell_angle_beta                 90.000000 
_cell_angle_gamma                120.000000        
_symmetry_space_group_name_H-M   'P-3c1' 
_symmetry_Int_Tables_number      165 

loop_
_symmetry_equiv_pos_site_id
_symmetry_equiv_pos_as_xyz
1    'x,y,z'
2    '-y,x-y,z'
3    '-x+y,-x,z'
4    'y,x,-z+1/2'
5    'x-y,-y,-z+1/2'
6    '-x,-x+y,-z+1/2'
7    '-x,-y,-z'
8    'y,-x+y,-z'
9    'x-y,x,-z'
10   '-y,-x,z+1/2'
11   '-x+y,y,z+1/2'
12   'x,x-y,z+1/2'

loop_
_atom_site_label 
_atom_site_type_symbol 
_atom_site_symmetry_multiplicity 
_atom_site_Wyckoff_symbol 
_atom_site_fract_x 
_atom_site_fract_y 
_atom_site_fract_z 
Li1  Li ? ?  0.66667  0.33333  0.66667
Li1002 Li ? ?  0.00000  0.00000  0.00000
Co1  Co ? ?  0.66667  0.33333  0.91667
Co1002 Co ? ?  0.00000  0.00000  0.25000
O1    O ? ?  0.66667  0.33333  0.78651
O1002  O ? ?  0.66667  0.33333  0.54683
O1003  O ? ?  0.00000  0.00000  0.11984
