data_generated_by_bilbao_crystallographic_server

_cell_length_a                   7.446952 
_cell_length_b                   7.446952 
_cell_length_c                   21.599998 
_cell_angle_alpha                90.000000 
_cell_angle_beta                 90.000000 
_cell_angle_gamma                120.000000        
_symmetry_space_group_name_H-M   'P3_2' 
_symmetry_Int_Tables_number      145 

loop_
_symmetry_equiv_pos_site_id
_symmetry_equiv_pos_as_xyz
1    'x,y,z'
2    '-y,x-y,z+2/3'
3    '-x+y,-x,z+1/3'

loop_
_atom_site_label 
_atom_site_type_symbol 
_atom_site_symmetry_multiplicity 
_atom_site_Wyckoff_symbol 
_atom_site_fract_x 
_atom_site_fract_y 
_atom_site_fract_z 
Li1  Li ? ?  0.00000  0.33333  0.58796
Li1002 Li ? ?  0.66667  0.66667  0.58796
Li1003 Li ? ?  0.33333  0.00000  0.58796
Li1004 Li ? ?  0.33333  0.33333  0.07871
Li1005 Li ? ?  0.00000  0.66667  0.07871
Li1006 Li ? ?  0.66667  0.00000  0.07871
C1    C ? ?  0.11112  0.22222  0.33333
C1002  C ? ?  0.77778  0.88889  0.33333
C1003  C ? ?  0.11111  0.88888  0.33333
C1004  C ? ?  0.77778  0.55556  0.33333
C1005  C ? ?  0.44445  0.88889  0.33333
C1006  C ? ?  0.44444  0.22223  0.33333
C1007  C ? ?  0.77777  0.22222  0.33333
C1008  C ? ?  0.11111  0.55556  0.33333
C1009  C ? ?  0.44444  0.55555  0.33333
C2    C ? ?  0.33334  0.33333  0.33333
C2002  C ? ?  0.66667  0.00000  0.33333
C2003  C ? ?  0.00000  0.66666  0.33333
C2004  C ? ?  0.00000  0.33333  0.33333
C2005  C ? ?  0.33334  0.00000  0.33333
C2006  C ? ?  0.66667  0.66666  0.33333
C3    C ? ?  0.77778  0.22222  0.50000
C3002  C ? ?  0.77778  0.55556  0.50000
C3003  C ? ?  0.44444  0.22222  0.50000
C3004  C ? ?  0.44444  0.55556  0.50000
C3005  C ? ?  0.11111  0.88889  0.50000
C3006  C ? ?  0.44444  0.88889  0.50000
C3007  C ? ?  0.11111  0.55556  0.50000
C3008  C ? ?  0.11111  0.22222  0.50000
C3009  C ? ?  0.77778  0.88889  0.50000
C4    C ? ?  0.22222  0.44443  0.50000
C4002  C ? ?  0.55557  0.77778  0.50000
C4003  C ? ?  0.22222  0.77778  0.50000
C4004  C ? ?  0.88888  0.77777  0.50000
C4005  C ? ?  0.55555  0.11110  0.50000
C4006  C ? ?  0.22223  0.11112  0.50000
C4007  C ? ?  0.88888  0.11112  0.50000
C4008  C ? ?  0.88890  0.44445  0.50000
C4009  C ? ?  0.55555  0.44445  0.50000
C5    C ? ?  0.00000  0.00000  0.33333
C5002  C ? ?  0.66667  0.33333  0.33333
C5003  C ? ?  0.33333  0.66667  0.33333
