data_generated_by_bilbao_crystallographic_server

_cell_length_a                   7.488164 
_cell_length_b                   7.488164 
_cell_length_c                   11.236103 
_cell_angle_alpha                90.000000 
_cell_angle_beta                 90.000000 
_cell_angle_gamma                120.000000        
_symmetry_space_group_name_H-M   'P-6' 
_symmetry_Int_Tables_number      174 

loop_
_symmetry_equiv_pos_site_id
_symmetry_equiv_pos_as_xyz
1    'x,y,z'
2    '-y,x-y,z'
3    '-x+y,-x,z'
4    'x,y,-z'
5    '-y,x-y,-z'
6    '-x+y,-x,-z'

loop_
_atom_site_label 
_atom_site_type_symbol 
_atom_site_symmetry_multiplicity 
_atom_site_Wyckoff_symbol 
_atom_site_fract_x 
_atom_site_fract_y 
_atom_site_fract_z 
Li1  Li ? ?  0.00000  0.00000  0.66667
Li1002 Li ? ?  0.66667  0.33333  0.66667
Li1003 Li ? ?  0.33333  0.66667  0.66667
Li1004 Li ? ?  0.00000  0.00000  0.00000
Li1005 Li ? ?  0.66667  0.33333  0.00000
Li1006 Li ? ?  0.33333  0.66667  0.00000
C2    C ? ?  0.88882  0.11118  0.83333
C2002  C ? ?  0.11118  0.88882  0.83333
C2003  C ? ?  0.22237  0.11118  0.50000
C2004  C ? ?  0.77763  0.88882  0.50000
C2005  C ? ?  0.55548  0.44452  0.83333
C2006  C ? ?  0.22215  0.77785  0.83333
C2007  C ? ?  0.77785  0.22215  0.83333
C2008  C ? ?  0.88903  0.44452  0.50000
C2009  C ? ?  0.44430  0.22215  0.50000
C2010  C ? ?  0.44452  0.55548  0.83333
C2011  C ? ?  0.55570  0.77785  0.50000
C2012  C ? ?  0.11097  0.55548  0.50000
