data_generated_by_bilbao_crystallographic_server

_cell_length_a                   4.323294 
_cell_length_b                   4.323294 
_cell_length_c                   14.981471 
_cell_angle_alpha                90.000000 
_cell_angle_beta                 90.000000 
_cell_angle_gamma                120.000000        
_symmetry_space_group_name_H-M   'P-62c' 
_symmetry_Int_Tables_number      190 

loop_
_symmetry_equiv_pos_site_id
_symmetry_equiv_pos_as_xyz
1    'x,y,z'
2    '-y,x-y,z'
3    '-x+y,-x,z'
4    'x,y,-z+1/2'
5    '-y,x-y,-z+1/2'
6    '-x+y,-x,-z+1/2'
7    'y,x,-z'
8    'x-y,-y,-z'
9    '-x,-x+y,-z'
10   'y,x,z+1/2'
11   'x-y,-y,z+1/2'
12   '-x,-x+y,z+1/2'

loop_
_atom_site_label 
_atom_site_type_symbol 
_atom_site_symmetry_multiplicity 
_atom_site_Wyckoff_symbol 
_atom_site_fract_x 
_atom_site_fract_y 
_atom_site_fract_z 
Li1  Li ? ?  0.00000  0.00000  0.75000
Li1002 Li ? ?  0.00000  0.00000  0.00000
C2    C ? ?  0.00000  0.33355  0.87500
C2002  C ? ?  0.00000  0.66645  0.87500
